//OpenFOAM blockMeshDict
FoamFile
{
  version	2.0;
  format	ascii;
  class		dictionary;
  object	blockMeshDict;
}

convertToMeters 1.0;

vertices
(
	(0  0  0)
	(0.86603         0.5           0)
	(0.86604         0.5           0)
	(1.7321           0           0)
	(0  1  0)
	(0.86603        0.51           0)
	(0.86604        0.51           0)
	(1.7321           1           0)
	(0           0        0.01)
	(0.86603         0.5        0.01)
	(0.86604         0.5        0.01)
	(1.7321           0        0.01)
	(0           1        0.01)
	(0.86603        0.51        0.01)
	(0.86604        0.51        0.01)
	(1.7321           1        0.01)

);

blocks
(
hex(0 1 5 4 8 9 13 12) (20 20 1) simpleGrading (1 1 1)
hex(1 2 6 5 9 10 14 13) (20 20 1) simpleGrading (1 1 1)
hex(2 3 7 6 10 11 15 14) (20 20 1) simpleGrading (1 1 1)
)

boundary
(

 	inlet 
	{
 		type patch;
 		faces
		(
			(0 8 12 4)
		);
	}

 	outlet 
	{
 		type patch;
 		faces
		(
			(3 11 15 7)
		);
	}

 	top 
	{
 		type symmetryPlane;
 		faces
		(
			(4 12 13 5)
			(5 13 14 6)
			(6 14 15 7)
		);
	}

 	bottom 
	{
 		type symmetryPlane;
 		faces
		(
			(0 8 9 1)
			(1 9 10 2)
			(2 10 11 3)
		);
	}

);