/*--------------------------------*- C++ -*----------------------------------*\
  =========                 |
  \\      /  F ield         | OpenFOAM: The Open Source CFD Toolbox
   \\    /   O peration     | Website:  https://openfoam.org
    \\  /    A nd           | Version:  6
     \\/     M anipulation  |
\*---------------------------------------------------------------------------*/
FoamFile
{
    version     2.0;
    format      ascii;
    class       dictionary;
    location    "system";
    object      sample;
}
// * * * * * * * * * * * * * * * * * * * * * * * * * * * * * * * * * * * * * //

type sets;
libs            ("libsampling.so");

interpolationScheme cell;

setFormat       raw;

sets
(
    horizontal_wall 
    {
        type    lineCell;
        axis    xyz;
        start   (0.001 0.001 0.001);
        end     (0.5999 0.001 0.001);
    }

    vertical_wall
    {
        type    lineCell;
        axis    xyz;
        start   (0.5999 0.001 0.001);
        end     (0.5999 0.1999 0.001);
    }

    horizontal_step
    {
        type    lineCell;
        axis    xyz;
        start   (0.5999 0.2001 0.001);
        end     (2.9999 0.2001 0.001);
    }

    top_wall
    {
        type    lineCell;
        axis    xyz;
        start   (0.001 0.999 0.001);
        end     (2.999 0.999 0.001);
    }




);

fields          ( p U T );


// ************************************************************************* //
