//OpenFOAM blockMeshDict
FoamFile
{
  version	2.0;
  format	ascii;
  class		dictionary;
  object	blockMeshDict;
}

convertToMeters 1.0;

vertices
(
	(0  0  0)
	(0.26588       0.075           0)
	(0.51588    -0.35801           0)
	(0        0.25           0)
	(0.26588       0.085           0)
	(0.51588  -0.0080137           0)
	(0           0        0.01)
	(0.26588       0.075        0.01)
	(0.51588    -0.35801        0.01)
	(0        0.25        0.01)
	(0.26588       0.085        0.01)
	(0.51588  -0.0080137        0.01)
	(-0.1           0           0)
	(-0.1        0.25           0)
	(-0.1           0        0.01)
	(-0.1        0.25        0.01)
	(0.61588    -0.35801           0)
	(0.61588  -0.0080137           0)
	(0.61588    -0.35801        0.01)
	(0.61588  -0.0080137        0.01)

);

blocks
(
hex (0 1 4 3 6 7 10 9) (60 60 1) simpleGrading (1 1 1)
hex (1 2 5 4 7 8 11 10) (60 60 1) simpleGrading (1 1 1)
hex (12 0 3 13 14 6 9 15) (60 60 1) simpleGrading (1 1 1)
hex (2 16 17 5 8 18 19 11) (60 60 1) simpleGrading (1 1 1)
);

boundary
(

 	inlet 
	{
 		type patch;
 		faces
		(
			(12 14 15 13)
		);
	}

 	outlet 
	{
 		type patch;
 		faces
		(
			(16 18 19 17)
		);
	}

 	top 
	{
 		type symmetryPlane;
 		faces
		(
			(13 15 9 3)
			(5 11 19 17)
		);
	}

 	bottom 
	{
 		type symmetryPlane;
 		faces
		(
			(12 14 6 0)
			(2 8 18 16)
		);
	}

 	obstacle  
	{
 		type patch;
 		faces
		(
			(3 9 10 4)
			(4 10 11 5)
			(0 6 7 1)
			(1 7 8 2)
		);
	}

);