//OpenFOAM blockMeshDict
FoamFile
{
  version	2.0;
  format	ascii;
  class		dictionary;
  object	blockMeshDict;
}

convertToMeters 1.0;

vertices
(
	(0  0  0)
	(0.026588      0.0075           0)
	(0.12659      0.0075           0)
	(0.17496  -0.0051452           0)
	(0       0.025           0)
	(0.026588      0.0175           0)
	(0.12659      0.0175           0)
	(0.17496    0.029855           0)
	(0           0        0.01)
	(0.026588      0.0075        0.01)
	(0.12659      0.0075        0.01)
	(0.17496  -0.0051452        0.01)
	(0       0.025        0.01)
	(0.026588      0.0175        0.01)
	(0.12659      0.0175        0.01)
	(0.17496    0.029855        0.01)
	(-0.001           0           0)
	(-0.001       0.025           0)
	(-0.001           0        0.01)
	(-0.001       0.025        0.01)
	(0.17596  -0.0051452           0)
	(0.17596    0.029855           0)
	(0.17596  -0.0051452        0.01)
	(0.17596    0.029855        0.01)

);

blocks
(
hex (0 1 5 4 8 9 13 12) (20 20 1) simpleGrading (1 1 1)
hex (1 2 6 5 9 10 14 13) (20 20 1) simpleGrading (1 1 1)
hex (2 3 7 6 10 11 15 14) (20 20 1) simpleGrading (1 1 1)
hex (16 0 4 17 18 8 12 19) (20 20 1) simpleGrading (1 1 1)
hex (3 20 21 7 11 22 23 15) (20 20 1) simpleGrading (1 1 1)
);

boundary
(

 	inlet 
	{
 		type patch;
 		faces
		(
			(16 18 19 17)
		);
	}

 	outlet 
	{
 		type patch;
 		faces
		(
			(20 22 23 21)
		);
	}

 	top 
	{
 		type symmetryPlane;
 		faces
		(
			(17 19 12 4)
			(7 15 23 21)
		);
	}

 	bottom 
	{
 		type symmetryPlane;
 		faces
		(
			(16 18 8 0)
			(3 11 22 20)
		);
	}

 	obstacle  
	{
 		type patch;
 		faces
		(
			(4 12 13 5)
			(5 13 14 6)
			(6 14 15 7)
			(0 8 9 1)
			(1 9 10 2)
			(2 10 11 3)
		);
	}

);